Version 4
SHEET 1 1604 1616
WIRE 80 -144 48 -144
WIRE 160 -144 160 -192
WIRE 176 -144 160 -144
WIRE 256 -144 256 -192
WIRE 272 -144 256 -144
WIRE 368 -144 368 -192
WIRE 368 -144 352 -144
WIRE 384 -144 368 -144
WIRE 480 -144 480 -192
WIRE 480 -144 464 -144
WIRE 560 -144 480 -144
WIRE 608 -144 560 -144
WIRE 736 -144 688 -144
WIRE 48 -128 48 -144
WIRE 960 -128 912 -128
WIRE 1088 -128 1040 -128
WIRE -624 -112 -624 -144
WIRE 560 -32 560 -144
WIRE 624 -32 560 -32
WIRE 736 -16 736 -144
WIRE 736 -16 688 -16
WIRE 800 -16 736 -16
WIRE 912 -16 912 -128
WIRE 912 -16 880 -16
WIRE 976 -16 912 -16
WIRE 624 0 592 0
WIRE 1088 0 1088 -128
WIRE 1088 0 1040 0
WIRE 1152 0 1088 0
WIRE 976 16 944 16
WIRE -96 32 -112 32
WIRE 592 32 592 0
WIRE 944 48 944 16
WIRE -624 64 -624 32
WIRE 448 96 400 96
WIRE 592 144 544 144
WIRE 768 144 672 144
WIRE -304 160 -320 160
WIRE 944 160 896 160
WIRE 1120 160 1024 160
WIRE -304 192 -320 192
WIRE 448 192 448 96
WIRE 448 192 400 192
WIRE 448 240 448 192
WIRE 544 240 544 144
WIRE 544 240 448 240
WIRE 608 240 544 240
WIRE 768 256 768 144
WIRE 768 256 672 256
WIRE 784 256 768 256
WIRE 896 256 896 160
WIRE 896 256 864 256
WIRE 960 256 896 256
WIRE 608 272 576 272
WIRE 1120 272 1120 160
WIRE 1120 272 1024 272
WIRE 448 288 448 240
WIRE 448 288 400 288
WIRE 960 288 928 288
WIRE 576 304 576 272
WIRE 928 320 928 288
WIRE 448 384 448 288
WIRE 448 384 400 384
WIRE -576 512 -624 512
WIRE -576 576 -752 576
WIRE -176 576 -176 512
WIRE -176 576 -352 576
WIRE -176 592 -176 576
WIRE -208 640 -352 640
WIRE 368 672 240 672
WIRE -256 704 -352 704
WIRE -208 704 -208 640
WIRE -176 704 -176 672
WIRE -176 704 -208 704
WIRE -96 704 -176 704
WIRE 368 704 272 704
WIRE 496 704 432 704
WIRE -256 736 -256 704
WIRE -176 736 -176 704
WIRE 240 736 240 672
WIRE 240 736 192 736
WIRE 272 736 272 704
WIRE 304 736 272 736
WIRE 272 800 272 736
WIRE 304 800 272 800
WIRE -256 832 -256 800
WIRE -176 832 -176 800
WIRE -176 832 -256 832
WIRE 240 832 240 736
WIRE 368 832 240 832
WIRE 496 832 432 832
WIRE -256 864 -256 832
WIRE 896 896 816 896
WIRE 1136 896 1056 896
WIRE -752 912 -752 576
WIRE -96 912 -96 704
WIRE -96 912 -752 912
WIRE 896 944 752 944
WIRE 896 1088 816 1088
WIRE 1136 1088 1056 1088
WIRE 128 1136 128 1088
WIRE 752 1136 752 944
WIRE 896 1136 752 1136
WIRE 128 1200 128 1136
WIRE 96 1216 16 1216
WIRE 208 1232 208 1136
WIRE 208 1232 160 1232
WIRE 256 1232 208 1232
WIRE 96 1248 48 1248
WIRE 48 1280 48 1248
WIRE 896 1280 816 1280
WIRE 1136 1280 1056 1280
WIRE 480 1296 480 1264
WIRE 512 1296 480 1296
WIRE 608 1296 592 1296
WIRE -224 1312 -224 1296
WIRE 752 1328 752 1136
WIRE 896 1328 752 1328
WIRE 480 1376 480 1296
WIRE 448 1392 384 1392
WIRE 608 1408 608 1296
WIRE 608 1408 512 1408
WIRE 752 1408 752 1328
WIRE 752 1408 608 1408
WIRE 448 1424 336 1424
WIRE 896 1472 816 1472
WIRE 1136 1472 1056 1472
WIRE 752 1520 752 1408
WIRE 896 1520 752 1520
FLAG -624 -144 5V
FLAG -624 32 0V
FLAG -624 -32 0
FLAG -624 144 0
FLAG -320 -32 5V
FLAG -320 -96 0V
FLAG -96 32 5V
FLAG -96 64 5V
FLAG -96 128 Q0
FLAG -96 160 Q1
FLAG -96 192 Q2
FLAG -96 224 Q3
FLAG 160 -272 Q0
FLAG 256 -272 Q1
FLAG 368 -272 Q2
FLAG 480 -272 Q3
FLAG 656 -48 V+
FLAG 656 16 V-
FLAG 48 -128 0
FLAG 592 32 0
FLAG 320 96 Q0
FLAG 320 192 Q1
FLAG 320 288 Q2
FLAG 320 384 Q3
FLAG 528 432 V+
FLAG 688 432 V-
FLAG 528 512 0
FLAG 688 512 0
FLAG 640 224 V+
FLAG 640 288 V-
FLAG 576 304 0
FLAG -256 864 0
FLAG -624 512 0
FLAG -576 704 5V
FLAG -352 512 5V
FLAG -576 640 CLK555
FLAG -320 -64 CLK555
FLAG -176 432 5V
FLAG 1136 896 Out0
FLAG 1136 1088 Out1
FLAG 816 896 Q0
FLAG 816 1088 Q1
FLAG 1136 1280 Out2
FLAG 1136 1472 Out3
FLAG 816 1280 Q2
FLAG 816 1472 Q3
FLAG 336 1424 BW_OUT
FLAG 320 1344 R2R_OUT
FLAG 480 1264 5V
FLAG 1008 -32 V+
FLAG 1008 32 V-
FLAG 1152 0 R2R_OUT
FLAG 944 48 0
FLAG 992 240 V+
FLAG 992 304 V-
FLAG 928 320 0
FLAG 1120 272 BW_OUT
FLAG 480 1520 0
FLAG -224 1392 0
FLAG -320 128 0V
FLAG -320 160 0V
FLAG -320 192 0V
FLAG -320 224 0V
FLAG 384 1392 Vin
FLAG -224 1296 Vin
FLAG -320 0 LOAD
FLAG 128 1088 5V
FLAG 128 1264 0
FLAG 48 1280 Vin
FLAG 256 1232 LOAD
FLAG 16 1216 BW_OUT
FLAG 192 736 CLK555
FLAG 496 704 clkUP
FLAG -432 -64 clkUP
FLAG 496 832 clkDN
FLAG -432 -16 clkDN
FLAG 304 736 LOAD
FLAG 304 816 5v
FLAG 384 720 5v
FLAG 384 848 5v
SYMBOL 74HC193 -208 -192 R0
SYMATTR InstName X1
SYMBOL voltage -624 -128 R0
WINDOW 123 0 0 Left 0
WINDOW 39 0 0 Left 0
SYMATTR InstName HIGH
SYMATTR Value 5V
SYMBOL voltage -624 48 R0
WINDOW 123 0 0 Left 0
WINDOW 39 0 0 Left 0
SYMATTR InstName LOW
SYMATTR Value 0V
SYMBOL res 272 -176 R180
WINDOW 0 36 76 Left 2
WINDOW 3 36 40 Left 2
SYMATTR InstName R1
SYMATTR Value 2K
SYMBOL res 176 -176 R180
WINDOW 0 36 76 Left 2
WINDOW 3 36 40 Left 2
SYMATTR InstName R2
SYMATTR Value 2K
SYMBOL res 272 -160 R90
WINDOW 0 0 56 VBottom 2
WINDOW 3 32 56 VTop 2
SYMATTR InstName R3
SYMATTR Value 1K
SYMBOL res 368 -160 R90
WINDOW 0 0 56 VBottom 2
WINDOW 3 32 56 VTop 2
SYMATTR InstName R4
SYMATTR Value 1K
SYMBOL OpAmps\\OP07 656 -80 R0
SYMATTR InstName U1
SYMBOL res 176 -160 R90
WINDOW 0 0 56 VBottom 2
WINDOW 3 32 56 VTop 2
SYMATTR InstName RF
SYMATTR Value 1K
SYMBOL res 384 -176 R180
WINDOW 0 36 76 Left 2
WINDOW 3 36 40 Left 2
SYMATTR InstName R5
SYMATTR Value 2K
SYMBOL res 496 -176 R180
WINDOW 0 36 76 Left 2
WINDOW 3 36 40 Left 2
SYMATTR InstName R6
SYMATTR Value 2K
SYMBOL res 480 -160 R90
WINDOW 0 0 56 VBottom 2
WINDOW 3 32 56 VTop 2
SYMATTR InstName R7
SYMATTR Value 1K
SYMBOL res 704 -160 R90
WINDOW 0 0 56 VBottom 2
WINDOW 3 32 56 VTop 2
SYMATTR InstName R8
SYMATTR Value 2K
SYMBOL res 416 80 R90
WINDOW 0 0 56 VBottom 2
WINDOW 3 32 56 VTop 2
SYMATTR InstName R9
SYMATTR Value 8K
SYMBOL res 416 176 R90
WINDOW 0 0 56 VBottom 2
WINDOW 3 32 56 VTop 2
SYMATTR InstName R10
SYMATTR Value 4K
SYMBOL res 416 272 R90
WINDOW 0 0 56 VBottom 2
WINDOW 3 32 56 VTop 2
SYMATTR InstName R11
SYMATTR Value 2K
SYMBOL res 416 368 R90
WINDOW 0 0 56 VBottom 2
WINDOW 3 32 56 VTop 2
SYMATTR InstName R12
SYMATTR Value 1K
SYMBOL OpAmps\\OP07 640 192 R0
SYMATTR InstName U2
SYMBOL res 688 128 R90
WINDOW 0 0 56 VBottom 2
WINDOW 3 32 56 VTop 2
SYMATTR InstName RF1
SYMATTR Value 1K
SYMBOL voltage 528 416 R0
WINDOW 123 0 0 Left 0
WINDOW 39 0 0 Left 0
SYMATTR InstName V1
SYMATTR Value +18V
SYMBOL voltage 688 416 R0
WINDOW 123 0 0 Left 0
WINDOW 39 0 0 Left 0
SYMATTR InstName V2
SYMATTR Value -18V
SYMBOL Misc\\NE555 -464 608 R0
SYMATTR InstName U3
SYMBOL cap -272 736 R0
SYMATTR InstName C1
SYMATTR Value 10n
SYMBOL cap -192 736 R0
SYMATTR InstName C2
SYMATTR Value 10n
SYMBOL res -192 416 R0
SYMATTR InstName R13
SYMATTR Value 1k
SYMBOL res -192 576 R0
SYMATTR InstName R14
SYMATTR Value 10K
SYMBOL Digital\\dflop 976 848 R0
WINDOW 3 115 133 Left 2
SYMATTR InstName A1
SYMATTR Value Vhigh=5 Vlow=0 Ref=1.5
SYMBOL Digital\\dflop 976 1040 R0
WINDOW 3 -48 162 Left 2
SYMATTR InstName A2
SYMATTR Value Vhigh=5 Vlow=0 Ref=1.5
SYMBOL Digital\\dflop 976 1232 R0
WINDOW 3 -68 161 Left 2
SYMATTR InstName A3
SYMATTR Value Vhigh=5 Vlow=0 Ref=1.5
SYMBOL Digital\\dflop 976 1424 R0
WINDOW 3 -96 174 Left 2
SYMATTR InstName A4
SYMATTR Value Vhigh=5 Vlow=0 Ref=1.5
SYMBOL OpAmps\\OP07 480 1344 R0
WINDOW 3 -70 18 Left 2
SYMATTR InstName U4
SYMBOL res 608 1280 R90
WINDOW 0 0 56 VBottom 2
WINDOW 3 32 56 VTop 2
SYMATTR InstName R15
SYMATTR Value 1K
SYMBOL OpAmps\\OP07 1008 -64 R0
SYMATTR InstName U5
SYMBOL res 1056 -144 R90
WINDOW 0 0 56 VBottom 2
WINDOW 3 32 56 VTop 2
SYMATTR InstName R16
SYMATTR Value 1k
SYMBOL OpAmps\\OP07 992 208 R0
SYMATTR InstName U6
SYMBOL res 1040 144 R90
WINDOW 0 0 56 VBottom 2
WINDOW 3 32 56 VTop 2
SYMATTR InstName RF2
SYMATTR Value 1K
SYMBOL res 896 -32 R90
WINDOW 0 0 56 VBottom 2
WINDOW 3 32 56 VTop 2
SYMATTR InstName R17
SYMATTR Value 1k
SYMBOL res 880 240 R90
WINDOW 0 0 56 VBottom 2
WINDOW 3 32 56 VTop 2
SYMATTR InstName R18
SYMATTR Value 1k
SYMBOL Misc\\signal -224 1296 R0
WINDOW 0 -65 30 Left 2
WINDOW 123 0 0 Left 0
WINDOW 39 0 0 Left 0
SYMATTR InstName V4
SYMATTR Value SINE(2.5 2.5 100)
SYMBOL Digital\\and 400 624 R0
SYMATTR InstName A5
SYMBOL Digital\\and 400 752 R0
SYMATTR InstName A6
SYMBOL OpAmps\\OP07 128 1168 R0
SYMATTR InstName U7
SYMBOL Digital\\inv 304 736 R0
SYMATTR InstName A7
SYMBOL res 224 1120 R90
WINDOW 0 0 56 VBottom 2
WINDOW 3 32 56 VTop 2
SYMATTR InstName R19
SYMATTR Value 1K
SYMBOL voltage 480 1424 R0
WINDOW 123 0 0 Left 0
WINDOW 39 0 0 Left 0
WINDOW 0 40 43 Left 2
SYMATTR InstName V3
SYMATTR Value -2V
TEXT -320 -192 Left 0 !.tran 0 20m 0 1u
TEXT -320 -224 Left 0 !.param tdgate=10n tdgate2=3*tdgate tripdtgate=1n vhighgate=5v vlowgate=0v
