Version 4
SHEET 1 1604 868
WIRE -96 32 -112 32
WIRE -304 160 -320 160
SYMBOL 74HC193 -208 -192 R0
SYMATTR InstName X1
TEXT -320 -192 Left 0 !.tran 0 50m 0
TEXT -320 -224 Left 0 !.param tdgate=10n tdgate2=3*tdgate tripdtgate=1n vhighgate=5v vlowgate=0v
