Version 4
SHEET 1 1604 900
WIRE 80 -144 48 -144
WIRE 160 -144 160 -192
WIRE 176 -144 160 -144
WIRE 256 -144 256 -192
WIRE 272 -144 256 -144
WIRE 368 -144 368 -192
WIRE 368 -144 352 -144
WIRE 384 -144 368 -144
WIRE 480 -144 480 -192
WIRE 480 -144 464 -144
WIRE 560 -144 480 -144
WIRE 608 -144 560 -144
WIRE 736 -144 688 -144
WIRE 48 -128 48 -144
WIRE -624 -112 -624 -144
WIRE 560 -32 560 -144
WIRE 624 -32 560 -32
WIRE 736 -16 736 -144
WIRE 736 -16 688 -16
WIRE 800 -16 736 -16
WIRE 624 0 592 0
WIRE -96 32 -112 32
WIRE 592 32 592 0
WIRE -624 64 -624 32
WIRE 448 96 400 96
WIRE 592 144 544 144
WIRE 768 144 672 144
WIRE -304 160 -320 160
WIRE -304 192 -320 192
WIRE 448 192 448 96
WIRE 448 192 400 192
WIRE 448 240 448 192
WIRE 544 240 544 144
WIRE 544 240 448 240
WIRE 608 240 544 240
WIRE 768 256 768 144
WIRE 768 256 672 256
WIRE 608 272 576 272
WIRE 448 288 448 240
WIRE 448 288 400 288
WIRE 576 304 576 272
WIRE 448 384 448 288
WIRE 448 384 400 384
FLAG -624 -144 5V
FLAG -624 32 0V
FLAG -624 -32 0
FLAG -624 144 0
FLAG -624 336 0
FLAG -320 0 5V
FLAG -320 -64 CLK
FLAG -624 256 CLK
FLAG -320 -32 5V
FLAG -320 -96 0V
FLAG -320 128 0V
FLAG -320 160 0V
FLAG -320 192 0V
FLAG -320 224 0V
FLAG -96 32 5V
FLAG -96 64 5V
FLAG -96 128 Q0
FLAG -96 160 Q1
FLAG -96 192 Q2
FLAG -96 224 Q3
FLAG 160 -272 Q0
FLAG 256 -272 Q1
FLAG 368 -272 Q2
FLAG 480 -272 Q3
FLAG 656 -48 V+
FLAG 656 16 V-
FLAG 48 -128 0
FLAG 800 -16 R2R_OUT
FLAG 592 32 0
FLAG 320 96 Q0
FLAG 320 192 Q1
FLAG 320 288 Q2
FLAG 320 384 Q3
FLAG 528 432 V+
FLAG 688 432 V-
FLAG 528 512 0
FLAG 688 512 0
FLAG 640 224 V+
FLAG 640 288 V-
FLAG 576 304 0
FLAG 768 256 BW_OUT
SYMBOL 74HC193 -208 -192 R0
SYMATTR InstName X1
SYMBOL voltage -624 -128 R0
WINDOW 123 0 0 Left 0
WINDOW 39 0 0 Left 0
SYMATTR InstName HIGH
SYMATTR Value 5V
SYMBOL voltage -624 48 R0
WINDOW 123 0 0 Left 0
WINDOW 39 0 0 Left 0
SYMATTR InstName LOW
SYMATTR Value 0V
SYMBOL voltage -624 240 R0
WINDOW 123 0 0 Left 0
WINDOW 39 0 0 Left 0
SYMATTR InstName V3
SYMATTR Value PULSE(0 5 7u 1ns 1ns 0.5m 1m)
SYMBOL res 272 -176 R180
WINDOW 0 36 76 Left 2
WINDOW 3 36 40 Left 2
SYMATTR InstName R1
SYMATTR Value 2K
SYMBOL res 176 -176 R180
WINDOW 0 36 76 Left 2
WINDOW 3 36 40 Left 2
SYMATTR InstName R2
SYMATTR Value 2K
SYMBOL res 272 -160 R90
WINDOW 0 0 56 VBottom 2
WINDOW 3 32 56 VTop 2
SYMATTR InstName R3
SYMATTR Value 1K
SYMBOL res 368 -160 R90
WINDOW 0 0 56 VBottom 2
WINDOW 3 32 56 VTop 2
SYMATTR InstName R4
SYMATTR Value 1K
SYMBOL OpAmps\\OP07 656 -80 R0
SYMATTR InstName U1
SYMBOL res 176 -160 R90
WINDOW 0 0 56 VBottom 2
WINDOW 3 32 56 VTop 2
SYMATTR InstName RF
SYMATTR Value 1K
SYMBOL res 384 -176 R180
WINDOW 0 36 76 Left 2
WINDOW 3 36 40 Left 2
SYMATTR InstName R5
SYMATTR Value 2K
SYMBOL res 496 -176 R180
WINDOW 0 36 76 Left 2
WINDOW 3 36 40 Left 2
SYMATTR InstName R6
SYMATTR Value 2K
SYMBOL res 480 -160 R90
WINDOW 0 0 56 VBottom 2
WINDOW 3 32 56 VTop 2
SYMATTR InstName R7
SYMATTR Value 1K
SYMBOL res 704 -160 R90
WINDOW 0 0 56 VBottom 2
WINDOW 3 32 56 VTop 2
SYMATTR InstName R8
SYMATTR Value 2K
SYMBOL res 416 80 R90
WINDOW 0 0 56 VBottom 2
WINDOW 3 32 56 VTop 2
SYMATTR InstName R9
SYMATTR Value 8K
SYMBOL res 416 176 R90
WINDOW 0 0 56 VBottom 2
WINDOW 3 32 56 VTop 2
SYMATTR InstName R10
SYMATTR Value 4K
SYMBOL res 416 272 R90
WINDOW 0 0 56 VBottom 2
WINDOW 3 32 56 VTop 2
SYMATTR InstName R11
SYMATTR Value 2K
SYMBOL res 416 368 R90
WINDOW 0 0 56 VBottom 2
WINDOW 3 32 56 VTop 2
SYMATTR InstName R12
SYMATTR Value 1K
SYMBOL OpAmps\\OP07 640 192 R0
SYMATTR InstName U2
SYMBOL res 688 128 R90
WINDOW 0 0 56 VBottom 2
WINDOW 3 32 56 VTop 2
SYMATTR InstName RF1
SYMATTR Value 1K
SYMBOL voltage 528 416 R0
WINDOW 123 0 0 Left 0
WINDOW 39 0 0 Left 0
SYMATTR InstName V1
SYMATTR Value +18V
SYMBOL voltage 688 416 R0
WINDOW 123 0 0 Left 0
WINDOW 39 0 0 Left 0
SYMATTR InstName V2
SYMATTR Value -18V
TEXT -320 -192 Left 0 !.tran 0 50m 0
TEXT -320 -224 Left 0 !.param tdgate=10n tdgate2=3*tdgate tripdtgate=1n vhighgate=5v vlowgate=0v
