Version 4
SHEET 1 880 680
SYMBOL res 144 96 R0
SYMATTR InstName R1
