Version 4
SHEET 1 1604 868
WIRE -624 -112 -624 -144
WIRE 224 -16 176 -16
WIRE -96 32 -112 32
WIRE 368 32 320 32
WIRE 544 32 448 32
WIRE -624 64 -624 32
WIRE 224 80 224 -16
WIRE 224 80 176 80
WIRE 224 128 224 80
WIRE 320 128 320 32
WIRE 320 128 224 128
WIRE 384 128 320 128
WIRE 544 144 544 32
WIRE 544 144 448 144
WIRE -304 160 -320 160
WIRE 224 176 224 128
WIRE 224 176 176 176
WIRE -304 192 -320 192
WIRE 224 272 224 176
WIRE 224 272 176 272
FLAG -624 -144 5V
FLAG -624 32 0V
FLAG -624 -32 0
FLAG -624 144 0
FLAG -624 336 0
FLAG -320 0 5V
FLAG -320 -64 CLK
FLAG -624 256 CLK
FLAG -320 -32 5V
FLAG -320 -96 0V
FLAG -320 128 0V
FLAG -320 160 0V
FLAG -320 192 0V
FLAG -320 224 0V
FLAG -96 32 5V
FLAG -96 64 5V
FLAG -96 128 Q0
FLAG -96 160 Q1
FLAG -96 192 Q2
FLAG -96 224 Q3
FLAG 96 -16 Q0
FLAG 96 80 Q1
FLAG 96 176 Q2
FLAG 96 272 Q3
FLAG 304 320 V+
FLAG 464 320 V-
FLAG 304 400 0
FLAG 464 400 0
FLAG 416 112 V+
FLAG 416 176 V-
SYMBOL 74HC193 -208 -192 R0
SYMATTR InstName X1
SYMBOL voltage -624 -128 R0
WINDOW 123 0 0 Left 0
WINDOW 39 0 0 Left 0
SYMATTR InstName HIGH
SYMATTR Value 5V
SYMBOL voltage -624 48 R0
WINDOW 123 0 0 Left 0
WINDOW 39 0 0 Left 0
SYMATTR InstName LOW
SYMATTR Value 0V
SYMBOL voltage -624 240 R0
WINDOW 123 0 0 Left 0
WINDOW 39 0 0 Left 0
SYMATTR InstName V3
SYMATTR Value PULSE(0 5 7u 1ns 1ns 0.5m 1m)
SYMBOL res 192 -32 R90
WINDOW 0 0 56 VBottom 2
WINDOW 3 32 56 VTop 2
SYMATTR InstName R1
SYMATTR Value 8K
SYMBOL res 192 64 R90
WINDOW 0 0 56 VBottom 2
WINDOW 3 32 56 VTop 2
SYMATTR InstName R2
SYMATTR Value 4K
SYMBOL res 192 160 R90
WINDOW 0 0 56 VBottom 2
WINDOW 3 32 56 VTop 2
SYMATTR InstName R3
SYMATTR Value 2K
SYMBOL res 192 256 R90
WINDOW 0 0 56 VBottom 2
WINDOW 3 32 56 VTop 2
SYMATTR InstName R4
SYMATTR Value 1K
SYMBOL OpAmps\\OP07 416 80 R0
SYMATTR InstName U1
SYMBOL res 464 16 R90
WINDOW 0 0 56 VBottom 2
WINDOW 3 32 56 VTop 2
SYMATTR InstName RF
SYMATTR Value 1K
SYMBOL voltage 304 304 R0
WINDOW 123 0 0 Left 0
WINDOW 39 0 0 Left 0
SYMATTR InstName V+
SYMATTR Value +12V
SYMBOL voltage 464 304 R0
WINDOW 123 0 0 Left 0
WINDOW 39 0 0 Left 0
SYMATTR InstName V-
SYMATTR Value -12V
TEXT -320 -192 Left 0 !.tran 0 50m 0
TEXT -320 -224 Left 0 !.param tdgate=10n tdgate2=3*tdgate tripdtgate=1n vhighgate=5v vlowgate=0v
