Version 4
SHEET 1 1604 868
WIRE -624 -112 -624 -144
WIRE -96 32 -112 32
WIRE -624 64 -624 32
WIRE -304 160 -320 160
WIRE 144 160 112 160
WIRE 224 160 224 112
WIRE 240 160 224 160
WIRE 320 160 320 112
WIRE 336 160 320 160
WIRE 432 160 432 112
WIRE 432 160 416 160
WIRE 448 160 432 160
WIRE 544 160 544 112
WIRE 544 160 528 160
WIRE 624 160 544 160
WIRE 672 160 624 160
WIRE 800 160 752 160
WIRE 112 176 112 160
WIRE -304 192 -320 192
WIRE 624 272 624 160
WIRE 688 272 624 272
WIRE 800 288 800 160
WIRE 800 288 752 288
WIRE 864 288 800 288
WIRE 688 304 656 304
WIRE 656 336 656 304
FLAG -624 -144 5V
FLAG -624 32 0V
FLAG -624 -32 0
FLAG -624 144 0
FLAG -624 336 0
FLAG -320 0 5V
FLAG -320 -64 CLK
FLAG -624 256 CLK
FLAG -320 -32 5V
FLAG -320 -96 0V
FLAG -320 128 0V
FLAG -320 160 0V
FLAG -320 192 0V
FLAG -320 224 0V
FLAG -96 32 5V
FLAG -96 64 5V
FLAG -96 128 Q0
FLAG -96 160 Q1
FLAG -96 192 Q2
FLAG -96 224 Q3
FLAG 224 32 Q0
FLAG 320 32 Q1
FLAG 432 32 Q2
FLAG 544 32 Q3
FLAG 304 320 V+
FLAG 464 320 V-
FLAG 304 400 0
FLAG 464 400 0
FLAG 720 256 V+
FLAG 720 320 V-
FLAG 112 176 0
FLAG 864 288 OUT
FLAG 656 336 0
SYMBOL 74HC193 -208 -192 R0
SYMATTR InstName X1
SYMBOL voltage -624 -128 R0
WINDOW 123 0 0 Left 0
WINDOW 39 0 0 Left 0
SYMATTR InstName HIGH
SYMATTR Value 5V
SYMBOL voltage -624 48 R0
WINDOW 123 0 0 Left 0
WINDOW 39 0 0 Left 0
SYMATTR InstName LOW
SYMATTR Value 0V
SYMBOL voltage -624 240 R0
WINDOW 123 0 0 Left 0
WINDOW 39 0 0 Left 0
SYMATTR InstName V3
SYMATTR Value PULSE(0 5 7u 1ns 1ns 0.5m 1m)
SYMBOL res 336 128 R180
WINDOW 0 36 76 Left 2
WINDOW 3 36 40 Left 2
SYMATTR InstName R1
SYMATTR Value 2R
SYMBOL res 240 128 R180
WINDOW 0 36 76 Left 2
WINDOW 3 36 40 Left 2
SYMATTR InstName R2
SYMATTR Value 2R
SYMBOL res 336 144 R90
WINDOW 0 0 56 VBottom 2
WINDOW 3 32 56 VTop 2
SYMATTR InstName R3
SYMBOL res 432 144 R90
WINDOW 0 0 56 VBottom 2
WINDOW 3 32 56 VTop 2
SYMATTR InstName R4
SYMBOL OpAmps\\OP07 720 224 R0
SYMATTR InstName U1
SYMBOL res 240 144 R90
WINDOW 0 0 56 VBottom 2
WINDOW 3 32 56 VTop 2
SYMATTR InstName RF
SYMBOL voltage 304 304 R0
WINDOW 123 0 0 Left 0
WINDOW 39 0 0 Left 0
SYMATTR InstName V+
SYMATTR Value +18V
SYMBOL voltage 464 304 R0
WINDOW 123 0 0 Left 0
WINDOW 39 0 0 Left 0
SYMATTR InstName V-
SYMATTR Value -18V
SYMBOL res 448 128 R180
WINDOW 0 36 76 Left 2
WINDOW 3 36 40 Left 2
SYMATTR InstName R5
SYMATTR Value 2R
SYMBOL res 560 128 R180
WINDOW 0 36 76 Left 2
WINDOW 3 36 40 Left 2
SYMATTR InstName R6
SYMATTR Value 2R
SYMBOL res 544 144 R90
WINDOW 0 0 56 VBottom 2
WINDOW 3 32 56 VTop 2
SYMATTR InstName R7
SYMBOL res 768 144 R90
WINDOW 0 0 56 VBottom 2
WINDOW 3 32 56 VTop 2
SYMATTR InstName R8
SYMATTR Value 2R
TEXT -320 -192 Left 0 !.tran 0 50m 0
TEXT -320 -224 Left 0 !.param tdgate=10n tdgate2=3*tdgate tripdtgate=1n vhighgate=5v vlowgate=0v
