Version 4
SHEET 1 1604 868
WIRE -624 -112 -624 -144
WIRE -96 32 -112 32
WIRE -624 64 -624 32
WIRE -304 160 -320 160
WIRE -304 192 -320 192
FLAG -624 -144 5V
FLAG -624 32 0V
FLAG -624 -32 0
FLAG -624 144 0
FLAG -624 336 0
FLAG -320 0 5V
FLAG -320 -64 CLK
FLAG -624 256 CLK
FLAG -320 -32 5V
FLAG -320 -96 0V
FLAG -320 128 0V
FLAG -320 160 0V
FLAG -320 192 0V
FLAG -320 224 0V
FLAG -96 32 5V
FLAG -96 64 5V
FLAG -96 128 Q0
FLAG -96 160 Q1
FLAG -96 192 Q2
FLAG -96 224 Q3
SYMBOL 74HC193 -208 -192 R0
SYMATTR InstName X1
SYMBOL voltage -624 -128 R0
WINDOW 123 0 0 Left 0
WINDOW 39 0 0 Left 0
SYMATTR InstName HIGH
SYMATTR Value 5V
SYMBOL voltage -624 48 R0
WINDOW 123 0 0 Left 0
WINDOW 39 0 0 Left 0
SYMATTR InstName LOW
SYMATTR Value 0V
SYMBOL voltage -624 240 R0
WINDOW 123 0 0 Left 0
WINDOW 39 0 0 Left 0
SYMATTR InstName V3
SYMATTR Value PULSE(0 5 7u 1ms 1ns 0.5m 1m)
TEXT -320 -192 Left 0 !.tran 0 50m 0
TEXT -320 -224 Left 0 !.param tdgate=10n tdgate2=3*tdgate tripdtgate=1n vhighgate=5v vlowgate=0v
